tests/data/pglib-opf/pglib_opf_case30_ieee.json
{"version": "1.0", "type": "input", "is_batch": false, "attributes": {}, "data": {"node": [{"id": 1, "u_rated": 1.0}, {"id": 2, "u_rated": 1.0}, {"id": 3, "u_rated": 1.0}, {"id": 4, "u_rated": 1.0}, {"id": 5, "u_rated": 1.0}, {"id": 6, "u_rated": 1.0}, {"id": 7, "u_rated": 1.0}, {"id": 8, "u_rated": 1.0}, {"id": 9, "u_rated": 1.0}, {"id": 10, "u_rated": 1.0}, {"id": 11, "u_rated": 1.0}, {"id": 12, "u_rated": 1.0}, {"id": 13, "u_rated": 1.0}, {"id": 14, "u_rated": 1.0}, {"id": 15, "u_rated": 1.0}, {"id": 16, "u_rated": 1.0}, {"id": 17, "u_rated": 1.0}, {"id": 18, "u_rated": 1.0}, {"id": 19, "u_rated": 1.0}, {"id": 20, "u_rated": 1.0}, {"id": 21, "u_rated": 1.0}, {"id": 22, "u_rated": 1.0}, {"id": 23, "u_rated": 1.0}, {"id": 24, "u_rated": 1.0}, {"id": 25, "u_rated": 1.0}, {"id": 26, "u_rated": 1.0}, {"id": 27, "u_rated": 1.0}, {"id": 28, "u_rated": 1.0}, {"id": 29, "u_rated": 1.0}, {"id": 30, "u_rated": 1.0}], "line": [{"id": 10000035, "from_node": 1, "to_node": 2, "from_status": 1, "to_status": 1, "r1": 1.9199999999999998e-10, "x1": 5.750000000000001e-10, "c1": 16806.761990504147, "tan1": 0.0, "r0": 1.9199999999999998e-10, "x0": 5.750000000000001e-10, "c0": 16806.761990504147, "tan0": 0.0}, {"id": 10000036, "from_node": 1, "to_node": 3, "from_status": 1, "to_status": 1, "r1": 4.52e-10, "x1": 1.652e-09, "c1": 12987.04335629866, "tan1": 0.0, "r0": 4.52e-10, "x0": 1.652e-09, "c0": 12987.04335629866, "tan0": 0.0}, {"id": 10000037, "from_node": 2, "to_node": 4, "from_status": 1, "to_status": 1, "r1": 5.7e-10, "x1": 1.7369999999999999e-09, "c1": 11713.803811563497, "tan1": 0.0, "r0": 5.7e-10, "x0": 1.7369999999999999e-09, "c0": 11713.803811563497, "tan0": 0.0}, {"id": 10000038, "from_node": 3, "to_node": 4, "from_status": 1, "to_status": 1, "r1": 1.32e-10, "x1": 3.7900000000000004e-10, "c1": 2673.803043943841, "tan1": 0.0, "r0": 1.32e-10, "x0": 3.7900000000000004e-10, "c0": 2673.803043943841, "tan0": 0.0}, {"id": 10000039, "from_node": 2, "to_node": 5, "from_status": 1, "to_status": 1, "r1": 4.72e-10, "x1": 1.9830000000000003e-09, "c1": 13305.353242482448, "tan1": 0.0, "r0": 4.72e-10, "x0": 1.9830000000000003e-09, "c0": 13305.353242482448, "tan0": 0.0}, {"id": 10000040, "from_node": 2, "to_node": 6, "from_status": 1, "to_status": 1, "r1": 5.81e-10, "x1": 1.7630000000000002e-09, "c1": 11904.789743273772, "tan1": 0.0, "r0": 5.81e-10, "x0": 1.7630000000000002e-09, "c0": 11904.789743273772, "tan0": 0.0}, {"id": 10000041, "from_node": 4, "to_node": 6, "from_status": 1, "to_status": 1, "r1": 1.19e-10, "x1": 4.14e-10, "c1": 2864.788975654116, "tan1": 0.0, "r0": 1.19e-10, "x0": 4.14e-10, "c0": 2864.788975654116, "tan0": 0.0}, {"id": 10000042, "from_node": 5, "to_node": 7, "from_status": 1, "to_status": 1, "r1": 4.6e-10, "x1": 1.1600000000000001e-09, "c1": 6493.52167814933, "tan1": 0.0, "r0": 4.6e-10, "x0": 1.1600000000000001e-09, "c0": 6493.52167814933, "tan0": 0.0}, {"id": 10000043, "from_node": 6, "to_node": 7, "from_status": 1, "to_status": 1, "r1": 2.67e-10, "x1": 8.200000000000001e-10, "c1": 5411.268065124442, "tan1": 0.0, "r0": 2.67e-10, "x0": 8.200000000000001e-10, "c0": 5411.268065124442, "tan0": 0.0}, {"id": 10000044, "from_node": 6, "to_node": 8, "from_status": 1, "to_status": 1, "r1": 1.2e-10, "x1": 4.2000000000000005e-10, "c1": 2864.788975654116, "tan1": 0.0, "r0": 1.2e-10, "x0": 4.2000000000000005e-10, "c0": 2864.788975654116, "tan0": 0.0}, {"id": 10000047, "from_node": 9, "to_node": 11, "from_status": 1, "to_status": 1, "r1": 0.0, "x1": 2.08e-09, "c1": 0.0, "tan1": 0.0, "r0": 0.0, "x0": 2.08e-09, "c0": 0.0, "tan0": 0.0}, {"id": 10000048, "from_node": 9, "to_node": 10, "from_status": 1, "to_status": 1, "r1": 0.0, "x1": 1.1000000000000001e-09, "c1": 0.0, "tan1": 0.0, "r0": 0.0, "x0": 1.1000000000000001e-09, "c0": 0.0, "tan0": 0.0}, {"id": 10000050, "from_node": 12, "to_node": 13, "from_status": 1, "to_status": 1, "r1": 0.0, "x1": 1.4000000000000001e-09, "c1": 0.0, "tan1": 0.0, "r0": 0.0, "x0": 1.4000000000000001e-09, "c0": 0.0, "tan0": 0.0}, {"id": 10000051, "from_node": 12, "to_node": 14, "from_status": 1, "to_status": 1, "r1": 1.231e-09, "x1": 2.5590000000000004e-09, "c1": 0.0, "tan1": 0.0, "r0": 1.231e-09, "x0": 2.5590000000000004e-09, "c0": 0.0, "tan0": 0.0}, {"id": 10000052, "from_node": 12, "to_node": 15, "from_status": 1, "to_status": 1, "r1": 6.62e-10, "x1": 1.3039999999999998e-09, "c1": 0.0, "tan1": 0.0, "r0": 6.62e-10, "x0": 1.3039999999999998e-09, "c0": 0.0, "tan0": 0.0}, {"id": 10000053, "from_node": 12, "to_node": 16, "from_status": 1, "to_status": 1, "r1": 9.45e-10, "x1": 1.987e-09, "c1": 0.0, "tan1": 0.0, "r0": 9.45e-10, "x0": 1.987e-09, "c0": 0.0, "tan0": 0.0}, {"id": 10000054, "from_node": 14, "to_node": 15, "from_status": 1, "to_status": 1, "r1": 2.21e-09, "x1": 1.997e-09, "c1": 0.0, "tan1": 0.0, "r0": 2.21e-09, "x0": 1.997e-09, "c0": 0.0, "tan0": 0.0}, {"id": 10000055, "from_node": 16, "to_node": 17, "from_status": 1, "to_status": 1, "r1": 5.24e-10, "x1": 1.923e-09, "c1": 0.0, "tan1": 0.0, "r0": 5.24e-10, "x0": 1.923e-09, "c0": 0.0, "tan0": 0.0}, {"id": 10000056, "from_node": 15, "to_node": 18, "from_status": 1, "to_status": 1, "r1": 1.0730000000000001e-09, "x1": 2.1850000000000002e-09, "c1": 0.0, "tan1": 0.0, "r0": 1.0730000000000001e-09, "x0": 2.1850000000000002e-09, "c0": 0.0, "tan0": 0.0}, {"id": 10000057, "from_node": 18, "to_node": 19, "from_status": 1, "to_status": 1, "r1": 6.39e-10, "x1": 1.292e-09, "c1": 0.0, "tan1": 0.0, "r0": 6.39e-10, "x0": 1.292e-09, "c0": 0.0, "tan0": 0.0}, {"id": 10000058, "from_node": 19, "to_node": 20, "from_status": 1, "to_status": 1, "r1": 3.4e-10, "x1": 6.8e-10, "c1": 0.0, "tan1": 0.0, "r0": 3.4e-10, "x0": 6.8e-10, "c0": 0.0, "tan0": 0.0}, {"id": 10000059, "from_node": 10, "to_node": 20, "from_status": 1, "to_status": 1, "r1": 9.36e-10, "x1": 2.09e-09, "c1": 0.0, "tan1": 0.0, "r0": 9.36e-10, "x0": 2.09e-09, "c0": 0.0, "tan0": 0.0}, {"id": 10000060, "from_node": 10, "to_node": 17, "from_status": 1, "to_status": 1, "r1": 3.2399999999999997e-10, "x1": 8.450000000000001e-10, "c1": 0.0, "tan1": 0.0, "r0": 3.2399999999999997e-10, "x0": 8.450000000000001e-10, "c0": 0.0, "tan0": 0.0}, {"id": 10000061, "from_node": 10, "to_node": 21, "from_status": 1, "to_status": 1, "r1": 3.48e-10, "x1": 7.49e-10, "c1": 0.0, "tan1": 0.0, "r0": 3.48e-10, "x0": 7.49e-10, "c0": 0.0, "tan0": 0.0}, {"id": 10000062, "from_node": 10, "to_node": 22, "from_status": 1, "to_status": 1, "r1": 7.27e-10, "x1": 1.499e-09, "c1": 0.0, "tan1": 0.0, "r0": 7.27e-10, "x0": 1.499e-09, "c0": 0.0, "tan0": 0.0}, {"id": 10000063, "from_node": 21, "to_node": 22, "from_status": 1, "to_status": 1, "r1": 1.16e-10, "x1": 2.36e-10, "c1": 0.0, "tan1": 0.0, "r0": 1.16e-10, "x0": 2.36e-10, "c0": 0.0, "tan0": 0.0}, {"id": 10000064, "from_node": 15, "to_node": 23, "from_status": 1, "to_status": 1, "r1": 1e-09, "x1": 2.02e-09, "c1": 0.0, "tan1": 0.0, "r0": 1e-09, "x0": 2.02e-09, "c0": 0.0, "tan0": 0.0}, {"id": 10000065, "from_node": 22, "to_node": 24, "from_status": 1, "to_status": 1, "r1": 1.1500000000000002e-09, "x1": 1.79e-09, "c1": 0.0, "tan1": 0.0, "r0": 1.1500000000000002e-09, "x0": 1.79e-09, "c0": 0.0, "tan0": 0.0}, {"id": 10000066, "from_node": 23, "to_node": 24, "from_status": 1, "to_status": 1, "r1": 1.32e-09, "x1": 2.7e-09, "c1": 0.0, "tan1": 0.0, "r0": 1.32e-09, "x0": 2.7e-09, "c0": 0.0, "tan0": 0.0}, {"id": 10000067, "from_node": 24, "to_node": 25, "from_status": 1, "to_status": 1, "r1": 1.885e-09, "x1": 3.292e-09, "c1": 0.0, "tan1": 0.0, "r0": 1.885e-09, "x0": 3.292e-09, "c0": 0.0, "tan0": 0.0}, {"id": 10000068, "from_node": 25, "to_node": 26, "from_status": 1, "to_status": 1, "r1": 2.5440000000000003e-09, "x1": 3.8e-09, "c1": 0.0, "tan1": 0.0, "r0": 2.5440000000000003e-09, "x0": 3.8e-09, "c0": 0.0, "tan0": 0.0}, {"id": 10000069, "from_node": 25, "to_node": 27, "from_status": 1, "to_status": 1, "r1": 1.093e-09, "x1": 2.087e-09, "c1": 0.0, "tan1": 0.0, "r0": 1.093e-09, "x0": 2.087e-09, "c0": 0.0, "tan0": 0.0}, {"id": 10000071, "from_node": 27, "to_node": 29, "from_status": 1, "to_status": 1, "r1": 2.198e-09, "x1": 4.153e-09, "c1": 0.0, "tan1": 0.0, "r0": 2.198e-09, "x0": 4.153e-09, "c0": 0.0, "tan0": 0.0}, {"id": 10000072, "from_node": 27, "to_node": 30, "from_status": 1, "to_status": 1, "r1": 3.202e-09, "x1": 6.027e-09, "c1": 0.0, "tan1": 0.0, "r0": 3.202e-09, "x0": 6.027e-09, "c0": 0.0, "tan0": 0.0}, {"id": 10000073, "from_node": 29, "to_node": 30, "from_status": 1, "to_status": 1, "r1": 2.399e-09, "x1": 4.533e-09, "c1": 0.0, "tan1": 0.0, "r0": 2.399e-09, "x0": 4.533e-09, "c0": 0.0, "tan0": 0.0}, {"id": 10000074, "from_node": 8, "to_node": 28, "from_status": 1, "to_status": 1, "r1": 6.360000000000001e-10, "x1": 2e-09, "c1": 13623.663128666241, "tan1": 0.0, "r0": 6.360000000000001e-10, "x0": 2e-09, "c0": 13623.663128666241, "tan0": 0.0}, {"id": 10000075, "from_node": 6, "to_node": 28, "from_status": 1, "to_status": 1, "r1": 1.6899999999999999e-10, "x1": 5.99e-10, "c1": 4138.028520389279, "tan1": 0.0, "r0": 1.6899999999999999e-10, "x0": 5.99e-10, "c0": 4138.028520389279, "tan0": 0.0}], "source": [{"id": 10000024, "node": 1, "status": 1, "u_ref": 1.0, "sk": 10000000000.0, "rx_ratio": 0.1}], "sym_load": [{"id": 10000001, "node": 2, "status": 1, "type": 0, "p_specified": 21700000.0, "q_specified": 12700000.0}, {"id": 10000002, "node": 3, "status": 1, "type": 0, "p_specified": 2400000.0, "q_specified": 1200000.0}, {"id": 10000003, "node": 4, "status": 1, "type": 0, "p_specified": 7600000.0, "q_specified": 1600000.0}, {"id": 10000004, "node": 5, "status": 1, "type": 0, "p_specified": 94200000.0, "q_specified": 19000000.0}, {"id": 10000005, "node": 7, "status": 1, "type": 0, "p_specified": 22800000.0, "q_specified": 10900000.0}, {"id": 10000006, "node": 8, "status": 1, "type": 0, "p_specified": 30000000.0, "q_specified": 30000000.0}, {"id": 10000007, "node": 10, "status": 1, "type": 0, "p_specified": 5800000.0, "q_specified": 2000000.0}, {"id": 10000009, "node": 12, "status": 1, "type": 0, "p_specified": 11200000.0, "q_specified": 7500000.0}, {"id": 10000010, "node": 14, "status": 1, "type": 0, "p_specified": 6200000.0, "q_specified": 1600000.0}, {"id": 10000011, "node": 15, "status": 1, "type": 0, "p_specified": 8199999.999999999, "q_specified": 2500000.0}, {"id": 10000012, "node": 16, "status": 1, "type": 0, "p_specified": 3500000.0, "q_specified": 1800000.0}, {"id": 10000013, "node": 17, "status": 1, "type": 0, "p_specified": 9000000.0, "q_specified": 5800000.0}, {"id": 10000014, "node": 18, "status": 1, "type": 0, "p_specified": 3200000.0, "q_specified": 900000.0}, {"id": 10000015, "node": 19, "status": 1, "type": 0, "p_specified": 9500000.0, "q_specified": 3400000.0}, {"id": 10000016, "node": 20, "status": 1, "type": 0, "p_specified": 2200000.0, "q_specified": 700000.0}, {"id": 10000017, "node": 21, "status": 1, "type": 0, "p_specified": 17500000.0, "q_specified": 11200000.0}, {"id": 10000018, "node": 23, "status": 1, "type": 0, "p_specified": 3200000.0, "q_specified": 1600000.0}, {"id": 10000019, "node": 24, "status": 1, "type": 0, "p_specified": 8700000.0, "q_specified": 6700000.0}, {"id": 10000021, "node": 26, "status": 1, "type": 0, "p_specified": 3500000.0, "q_specified": 2300000.0}, {"id": 10000022, "node": 29, "status": 1, "type": 0, "p_specified": 2400000.0, "q_specified": 900000.0}, {"id": 10000023, "node": 30, "status": 1, "type": 0, "p_specified": 10600000.0, "q_specified": 1900000.0}], "sym_gen": [{"id": 10000025, "node": 2, "status": 1, "type": 0, "p_specified": 46000000.0, "q_specified": 0.0}, {"id": 10000027, "node": 5, "status": 1, "type": 0, "p_specified": 0.0, "q_specified": 0.0}, {"id": 10000029, "node": 8, "status": 1, "type": 0, "p_specified": 0.0, "q_specified": 0.0}, {"id": 10000031, "node": 11, "status": 1, "type": 0, "p_specified": 0.0, "q_specified": 0.0}, {"id": 10000033, "node": 13, "status": 1, "type": 0, "p_specified": 0.0, "q_specified": 0.0}], "shunt": [{"id": 10000008, "node": 10, "status": 1, "g1": 0.0, "b1": 19000000.0, "g0": 0.0, "b0": 19000000.0}, {"id": 10000020, "node": 24, "status": 1, "g1": 0.0, "b1": 4300000.0, "g0": 0.0, "b0": 4300000.0}], "transformer": [{"id": 10000045, "from_node": 6, "to_node": 9, "from_status": 1, "to_status": 1, "u1": 1.0, "u2": 1.0, "sn": 100000000.0, "uk": 0.208, "pk": 0.0, "i0": 0.0, "p0": 0.0, "winding_from": 1, "winding_to": 1, "clock": 0, "tap_side": 0, "tap_pos": 0, "tap_min": 0, "tap_max": 1, "tap_nom": 1, "tap_size": 0.02200000000000002}, {"id": 10000046, "from_node": 6, "to_node": 10, "from_status": 1, "to_status": 1, "u1": 1.0, "u2": 1.0, "sn": 100000000.0, "uk": 0.556, "pk": 0.0, "i0": 0.0, "p0": 0.0, "winding_from": 1, "winding_to": 1, "clock": 0, "tap_side": 0, "tap_pos": 0, "tap_min": 0, "tap_max": 1, "tap_nom": 1, "tap_size": 0.031000000000000028}, {"id": 10000049, "from_node": 4, "to_node": 12, "from_status": 1, "to_status": 1, "u1": 1.0, "u2": 1.0, "sn": 100000000.0, "uk": 0.256, "pk": 0.0, "i0": 0.0, "p0": 0.0, "winding_from": 1, "winding_to": 1, "clock": 0, "tap_side": 0, "tap_pos": 0, "tap_min": 0, "tap_max": 1, "tap_nom": 1, "tap_size": 0.06799999999999995}, {"id": 10000070, "from_node": 28, "to_node": 27, "from_status": 1, "to_status": 1, "u1": 1.0, "u2": 1.0, "sn": 100000000.0, "uk": 0.396, "pk": 0.0, "i0": 0.0, "p0": 0.0, "winding_from": 1, "winding_to": 1, "clock": 0, "tap_side": 0, "tap_pos": 0, "tap_min": 0, "tap_max": 1, "tap_nom": 1, "tap_size": 0.03200000000000003}], "voltage_regulator": [{"id": 10000026, "regulated_object": 10000025, "status": 1, "u_ref": 1.0, "q_min": -40000000.0, "q_max": 46000000.0}, {"id": 10000028, "regulated_object": 10000027, "status": 1, "u_ref": 1.0, "q_min": -40000000.0, "q_max": 40000000.0}, {"id": 10000030, "regulated_object": 10000029, "status": 1, "u_ref": 1.0, "q_min": -10000000.0, "q_max": 40000000.0}, {"id": 10000032, "regulated_object": 10000031, "status": 1, "u_ref": 1.0, "q_min": -6000000.0, "q_max": 24000000.0}, {"id": 10000034, "regulated_object": 10000033, "status": 1, "u_ref": 1.0, "q_min": -6000000.0, "q_max": 24000000.0}]}}